units(length='cm', time='s', quantity='mol', act_energy='kcal/mol')

ideal_gas(name='gas',
          elements="H D T C Ci O Oi N Ne Ar He Si S F Cl Br I X",
          species="""Ar          He          Ne          N2
                     methane(1)  oxygen(2)   CH3(5)      H(6)
                     HO2(7)      CH2(T)(8)   OH(D)(9)    O(T)(10)
                     OO(11)      CH3O2(12)   CC(14)      COO(15)
                     CH3O(17)    CH3O2(19)   CH2O(25)    CH2O(26)
                     CHO(34)     H2O(35)     C2H5(58)    CHO3(63)
                     C2H4O(64)   CHO2(70)    CHO3(75)    CO2(114)
                     CHO3(116)   CHO4(125)   CHO2(133)   S(137)
                     S(144)      C2H4(166)   C2H3(183)   C3H7(186)
                     C2H5O(189)  C3H6(209)   C3H6(211)   C3H7(212)
                     C2H4O(223)  C#C(234)    C2H2(247)   C3H5(249)
                     S(250)      C2H2O(255)  C2H2O(276)  C2H2O(282)
                     C2H3O(404)  S(407)      S(413)      S(416)
                     S(434)      S(435)      S(491)      S(492)
                     C3H6(813)   S(1075)""",
          reactions='all',
          transport='Mix',
          initial_state=state(temperature=300.0, pressure=OneAtm))

#-------------------------------------------------------------------------------
# Element data
#-------------------------------------------------------------------------------

element(symbol='Ci', atomic_mass=13.003)
element(symbol='D', atomic_mass=2.014)
element(symbol='Oi', atomic_mass=17.999)
element(symbol='T', atomic_mass=3.016)
element(symbol='X', atomic_mass=195.083)
#-------------------------------------------------------------------------------
# Species data
#-------------------------------------------------------------------------------

species(name='Ar',
        atoms='Ar:1',
        thermo=(NASA([200.00, 1000.00],
                     [ 2.50000000E+00,  0.00000000E+00,  0.00000000E+00,
                       0.00000000E+00,  0.00000000E+00, -7.45375000E+02,
                       4.37967000E+00]),
                NASA([1000.00, 6000.00],
                     [ 2.50000000E+00,  0.00000000E+00,  0.00000000E+00,
                       0.00000000E+00,  0.00000000E+00, -7.45375000E+02,
                       4.37967000E+00])),
        transport=gas_transport(geom='atom',
                                diam=3.33,
                                well_depth=136.501))

species(name='He',
        atoms='He:1',
        thermo=(NASA([200.00, 1000.00],
                     [ 2.50000000E+00,  0.00000000E+00,  0.00000000E+00,
                       0.00000000E+00,  0.00000000E+00, -7.45375000E+02,
                       9.28724000E-01]),
                NASA([1000.00, 6000.00],
                     [ 2.50000000E+00,  0.00000000E+00,  0.00000000E+00,
                       0.00000000E+00,  0.00000000E+00, -7.45375000E+02,
                       9.28724000E-01])),
        transport=gas_transport(geom='atom',
                                diam=2.576,
                                well_depth=10.2))

species(name='Ne',
        atoms='Ne:1',
        thermo=(NASA([200.00, 1000.00],
                     [ 2.50000000E+00,  0.00000000E+00,  0.00000000E+00,
                       0.00000000E+00,  0.00000000E+00, -7.45375000E+02,
                       3.35532000E+00]),
                NASA([1000.00, 6000.00],
                     [ 2.50000000E+00,  0.00000000E+00,  0.00000000E+00,
                       0.00000000E+00,  0.00000000E+00, -7.45375000E+02,
                       3.35532000E+00])),
        transport=gas_transport(geom='atom',
                                diam=3.758,
                                well_depth=148.6))

species(name='N2',
        atoms='N:2',
        thermo=(NASA([200.00, 1000.00],
                     [ 3.53101000E+00, -1.23661000E-04, -5.02999000E-07,
                       2.43531000E-09, -1.40881000E-12, -1.04698000E+03,
                       2.96747000E+00]),
                NASA([1000.00, 6000.00],
                     [ 2.95258000E+00,  1.39690000E-03, -4.92632000E-07,
                       7.86010000E-11, -4.60755000E-15, -9.23949000E+02,
                       5.87189000E+00])),
        transport=gas_transport(geom='linear',
                                diam=3.621,
                                well_depth=97.53,
                                polar=1.76,
                                rot_relax=4.0))

species(name='methane(1)',
        atoms='C:1 H:4',
        thermo=(NASA([100.00, 1084.12],
                     [ 4.20541332E+00, -5.35555155E-03,  2.51122522E-05,
                      -2.13761927E-08,  5.97520268E-12, -1.01619432E+04,
                      -9.21272374E-01]),
                NASA([1084.12, 5000.00],
                     [ 9.08276768E-01,  1.14540676E-02, -4.57172801E-06,
                       8.29189287E-10, -5.66312942E-14, -9.71997928E+03,
                       1.39930319E+01])),
        transport=gas_transport(geom='nonlinear',
                                diam=3.746,
                                well_depth=141.4,
                                polar=2.6,
                                rot_relax=13.0))

species(name='oxygen(2)',
        atoms='O:2',
        thermo=(NASA([100.00, 1074.56],
                     [ 3.53732181E+00, -1.21570928E-03,  5.31617817E-06,
                      -4.89443412E-09,  1.45845038E-12, -1.03858846E+03,
                       4.68368407E+00]),
                NASA([1074.56, 5000.00],
                     [ 3.15382426E+00,  1.67803800E-03, -7.69971009E-07,
                       1.51274711E-10, -1.08781798E-14, -1.04081879E+03,
                       6.16753877E+00])),
        transport=gas_transport(geom='linear',
                                diam=3.458,
                                well_depth=107.4,
                                polar=1.6,
                                rot_relax=3.8))

species(name='CH3(5)',
        atoms='C:1 H:3',
        thermo=(NASA([100.00, 1337.62],
                     [ 3.91546920E+00,  1.84152670E-03,  3.48746596E-06,
                      -3.32752678E-09,  8.49973974E-13,  1.62856393E+04,
                       3.51735644E-01]),
                NASA([1337.62, 5000.00],
                     [ 3.54143432E+00,  4.76790359E-03, -1.82150298E-06,
                       3.28880743E-10, -2.22548881E-14,  1.62239692E+04,
                       1.66048292E+00])),
        transport=gas_transport(geom='nonlinear',
                                diam=3.8,
                                well_depth=144.001))

species(name='H(6)',
        atoms='H:1',
        thermo=(NASA([100.00, 3459.60],
                     [ 2.50000000E+00,  9.24384602E-15, -1.36779837E-17,
                       6.66184769E-21, -1.00106912E-24,  2.54742178E+04,
                      -4.44972896E-01]),
                NASA([3459.60, 5000.00],
                     [ 2.49999999E+00,  9.20455546E-12, -3.58608293E-15,
                       6.15198922E-19, -3.92041801E-23,  2.54742178E+04,
                      -4.44972842E-01])),
        transport=gas_transport(geom='atom',
                                diam=2.05,
                                well_depth=145.0))

species(name='HO2(7)',
        atoms='H:1 O:2',
        thermo=(NASA([100.00, 932.14],
                     [ 4.04594886E+00, -1.73469711E-03,  1.03768353E-05,
                      -1.02205059E-08,  3.34920111E-12, -9.86754414E+02,
                       4.63579881E+00]),
                NASA([932.14, 5000.00],
                     [ 3.21022637E+00,  3.67944113E-03, -1.27702816E-06,
                       2.18048232E-10, -1.46340422E-14, -9.10363522E+02,
                       8.18298717E+00])),
        transport=gas_transport(geom='nonlinear',
                                diam=3.458,
                                well_depth=107.4,
                                rot_relax=1.0))

species(name='CH2(T)(8)',
        atoms='C:1 H:2',
        thermo=(NASA([100.00, 1104.55],
                     [ 4.01192400E+00, -1.54979969E-04,  3.26298168E-06,
                      -2.40422166E-09,  5.69497883E-13,  4.58676802E+04,
                       5.33200034E-01]),
                NASA([1104.55, 5000.00],
                     [ 3.14983448E+00,  2.96674147E-03, -9.76055159E-07,
                       1.54115111E-10, -9.50336676E-15,  4.60581388E+04,
                       4.77807330E+00])),
        transport=gas_transport(geom='nonlinear',
                                diam=3.8,
                                well_depth=144.001))

species(name='OH(D)(9)',
        atoms='H:1 O:1',
        thermo=(NASA([100.00, 1145.76],
                     [ 3.51456839E+00,  2.92734177E-05, -5.32150560E-07,
                       1.01947516E-09, -3.85939388E-13,  3.41425418E+03,
                       2.10434756E+00]),
                NASA([1145.76, 5000.00],
                     [ 3.07193723E+00,  6.04019852E-04, -1.39805999E-08,
                      -2.13440797E-11,  2.48061354E-15,  3.57938792E+03,
                       4.57801473E+00])),
        transport=gas_transport(geom='linear',
                                diam=2.75,
                                well_depth=80.0))

species(name='O(T)(10)',
        atoms='O:1',
        thermo=(NASA([100.00, 3459.60],
                     [ 2.50000000E+00,  9.24384602E-15, -1.36779837E-17,
                       6.66184769E-21, -1.00106912E-24,  2.92302441E+04,
                       5.12616427E+00]),
                NASA([3459.60, 5000.00],
                     [ 2.49999999E+00,  9.20455546E-12, -3.58608293E-15,
                       6.15198922E-19, -3.92041801E-23,  2.92302441E+04,
                       5.12616433E+00])),
        transport=gas_transport(geom='atom',
                                diam=2.75,
                                well_depth=80.0))

species(name='OO(11)',
        atoms='H:2 O:2',
        thermo=(NASA([100.00, 908.87],
                     [ 3.73136208E+00,  3.35065872E-03,  9.35052114E-06,
                      -1.52102290E-08,  6.41597657E-12, -1.77211710E+04,
                       5.45909400E+00]),
                NASA([908.87, 5000.00],
                     [ 5.41577659E+00,  2.61009980E-03, -4.39902881E-07,
                       4.91113694E-11, -3.35210539E-15, -1.83029481E+04,
                      -4.02242305E+00])),
        transport=gas_transport(geom='nonlinear',
                                diam=3.458,
                                well_depth=107.4,
                                rot_relax=3.8))

species(name='CH3O2(12)',
        atoms='C:1 H:3 O:2',
        thermo=(NASA([100.00, 2096.20],
                     [ 3.66590242E+00,  1.04794008E-02, -2.30381879E-06,
                      -5.38691863E-10,  1.86906128E-13,  5.48716607E+02,
                       8.70200152E+00]),
                NASA([2096.20, 5000.00],
                     [ 6.47623421E+00,  8.47752534E-03, -3.27626881E-06,
                       5.35443419E-10, -3.24189290E-14, -1.36787280E+03,
                      -8.69747382E+00])),
        transport=gas_transport(geom='nonlinear',
                                diam=3.69,
                                well_depth=417.0,
                                dipole=1.7,
                                rot_relax=2.0))

species(name='CC(14)',
        atoms='C:2 H:6',
        thermo=(NASA([100.00, 954.52],
                     [ 3.78030569E+00, -3.24227067E-03,  5.52367429E-05,
                      -6.38563333E-08,  2.28629119E-11, -1.16203396E+04,
                       5.21043985E+00]),
                NASA([954.52, 5000.00],
                     [ 4.58993077E+00,  1.41506029E-02, -4.75952181E-06,
                       8.60270541E-10, -6.21696851E-14, -1.27218065E+04,
                      -3.61794972E+00])),
        transport=gas_transport(geom='nonlinear',
                                diam=4.302,
                                well_depth=252.301,
                                rot_relax=1.5))

species(name='COO(15)',
        atoms='C:1 H:4 O:2',
        thermo=(NASA([100.00, 1477.64],
                     [ 3.16027515E+00,  1.66933144E-02, -5.78396199E-06,
                      -5.12220334E-10,  4.74352461E-13, -1.77106999E+04,
                       9.77387800E+00]),
                NASA([1477.64, 5000.00],
                     [ 6.19126801E+00,  1.22693009E-02, -5.13115885E-06,
                       9.24914298E-10, -6.17716784E-14, -1.90192126E+04,
                      -7.42906839E+00])),
        transport=gas_transport(geom='nonlinear',
                                diam=3.626,
                                well_depth=481.8,
                                rot_relax=1.0))

species(name='CH3O(17)',
        atoms='C:1 H:3 O:1',
        thermo=(NASA([100.00, 916.88],
                     [ 4.00135937E+00, -4.15685860E-03,  3.26355176E-05,
                      -3.71119296E-08,  1.35709728E-11, -6.15264760E+00,
                       6.81370761E+00]),
                NASA([916.88, 5000.00],
                     [ 4.01621867E+00,  6.26814113E-03, -1.58068581E-06,
                       2.44607849E-10, -1.70338278E-14, -4.49803372E+02,
                       4.33882535E+00])),
        transport=gas_transport(geom='nonlinear',
                                diam=3.69,
                                well_depth=417.002,
                                dipole=1.7,
                                rot_relax=2.0))

species(name='CH3O2(19)',
        atoms='C:1 H:3 O:2',
        thermo=(NASA([100.00, 1601.70],
                     [ 3.15326993E+00,  1.80563602E-02, -1.19793872E-05,
                       4.01766224E-09, -5.59797732E-13,  5.83124209E+03,
                       9.28534117E+00]),
                NASA([1601.70, 5000.00],
                     [ 6.49754703E+00,  9.70449817E-03, -4.15778651E-06,
                       7.62104167E-10, -5.16540596E-14,  4.75994190E+03,
                      -8.42421917E+00])),
        transport=gas_transport(geom='nonlinear',
                                diam=3.69,
                                well_depth=417.0,
                                dipole=1.7,
                                rot_relax=2.0))

species(name='CH2O(25)',
        atoms='C:1 H:2 O:1',
        thermo=(NASA([100.00, 1402.26],
                     [ 4.32290975E+00, -5.06341253E-03,  2.15159576E-05,
                      -1.76525472E-08,  4.31828203E-12, -1.42789571E+04,
                       2.39237426E+00]),
                NASA([1402.26, 5000.00],
                     [ 3.17969858E+00,  9.55636786E-03, -6.27321442E-06,
                       1.33558903E-09, -9.68444639E-14, -1.50751010E+04,
                       4.31222429E+00])),
        transport=gas_transport(geom='nonlinear',
                                diam=3.59,
                                well_depth=498.002,
                                rot_relax=2.0))

species(name='CH2O(26)',
        atoms='C:1 H:2 O:1',
        thermo=(NASA([100.00, 884.27],
                     [ 3.81289380E+00, -1.39711541E-03,  2.72236020E-05,
                      -3.80892853E-08,  1.59447165E-11,  2.23224674E+04,
                       7.76000634E+00]),
                NASA([884.27, 5000.00],
                     [ 6.98143004E+00, -1.14415507E-03,  2.05210538E-06,
                      -4.58169943E-10,  3.18297076E-14,  2.11918456E+04,
                      -1.03610863E+01])),
        transport=gas_transport(geom='nonlinear',
                                diam=5.189,
                                well_depth=366.34))

species(name='CHO(34)',
        atoms='C:1 H:1 O:1',
        thermo=(NASA([100.00, 1565.73],
                     [ 4.35601351E+00, -3.47080688E-03,  1.25662484E-05,
                      -9.99473383E-09,  2.27884089E-12,  3.99577088E+03,
                       2.75115228E+00]),
                NASA([1565.73, 5000.00],
                     [ 4.61885957E+00,  5.04428835E-03, -4.39226826E-06,
                       9.73252562E-10, -7.07413324E-14,  2.78740420E+03,
                      -2.23071635E+00])),
        transport=gas_transport(geom='nonlinear',
                                diam=3.59,
                                well_depth=498.002))

species(name='H2O(35)',
        atoms='H:2 O:1',
        thermo=(NASA([100.00, 1130.24],
                     [ 4.05763580E+00, -7.87935502E-04,  2.90877377E-06,
                      -1.47518723E-09,  2.12842410E-13, -3.02815866E+04,
                      -3.11363946E-01]),
                NASA([1130.24, 5000.00],
                     [ 2.84325071E+00,  2.75108504E-03, -7.81031259E-07,
                       1.07243588E-10, -5.79391821E-15, -2.99586129E+04,
                       5.91041843E+00])),
        transport=gas_transport(geom='nonlinear',
                                diam=2.605,
                                well_depth=572.402,
                                dipole=1.844,
                                rot_relax=4.0))

species(name='C2H5(58)',
        atoms='C:2 H:5',
        thermo=(NASA([100.00, 900.31],
                     [ 3.82186524E+00, -3.43397318E-03,  5.09271333E-05,
                      -6.20231584E-08,  2.37082690E-11,  1.30660117E+04,
                       7.61633014E+00]),
                NASA([900.31, 5000.00],
                     [ 5.15613144E+00,  9.43136163E-03, -1.81954032E-06,
                       2.21215092E-10, -1.43497537E-14,  1.20641136E+04,
                      -2.91055397E+00])),
        transport=gas_transport(geom='nonlinear',
                                diam=4.302,
                                well_depth=252.301,
                                rot_relax=1.5))

species(name='CHO3(63)',
        atoms='C:1 H:1 O:3',
        thermo=(NASA([100.00, 935.46],
                     [ 3.38374516E+00,  1.91417722E-03,  4.59984470E-05,
                      -6.61807434E-08,  2.67350713E-11, -2.34797652E+04,
                       1.22589067E+01]),
                NASA([935.46, 5000.00],
                     [ 1.07707662E+01,  1.03182164E-04,  1.15693635E-06,
                      -1.97269641E-10,  7.46901900E-15, -2.61646201E+04,
                      -2.98498227E+01])),
        transport=gas_transport(geom='nonlinear',
                                diam=5.617,
                                well_depth=429.382))

species(name='C2H4O(64)',
        atoms='C:2 H:4 O:1',
        thermo=(NASA([100.00, 984.20],
                     [ 3.70077316E+00,  3.88027595E-04,  3.86921798E-05,
                      -4.52437678E-08,  1.58855121E-11, -2.13809077E+04,
                       9.13568154E+00]),
                NASA([984.20, 5000.00],
                     [ 4.58895595E+00,  1.28892670E-02, -4.91495840E-06,
                       9.26493708E-10, -6.70999150E-14, -2.23360407E+04,
                       9.00727448E-01])),
        transport=gas_transport(geom='nonlinear',
                                diam=3.97,
                                well_depth=436.001,
                                rot_relax=2.0))

species(name='CHO2(70)',
        atoms='C:1 H:1 O:2',
        thermo=(NASA([100.00, 994.53],
                     [ 3.96486508E+00, -5.18786439E-03,  3.73936665E-05,
                      -4.21899236E-08,  1.47215035E-11, -2.04318475E+04,
                       7.33604107E+00]),
                NASA([994.53, 5000.00],
                     [ 5.26542663E+00,  5.41240115E-03, -2.47146423E-06,
                       5.38730739E-10, -4.28498201E-14, -2.14734578E+04,
                      -2.86741651E+00])),
        transport=gas_transport(geom='nonlinear',
                                diam=3.59,
                                well_depth=498.0,
                                rot_relax=2.0))

species(name='CHO3(75)',
        atoms='C:1 H:1 O:3',
        thermo=(NASA([100.00, 933.89],
                     [ 2.89508298E+00,  1.34430383E-02,  2.20407133E-05,
                      -4.65738805E-08,  2.09119535E-11, -2.32151266E+04,
                       1.18816773E+01]),
                NASA([933.89, 5000.00],
                     [ 1.29022639E+01, -1.68470611E-03,  1.79150318E-06,
                      -3.18162698E-10,  1.64206886E-14, -2.62936787E+04,
                      -4.21879790E+01])),
        transport=gas_transport(geom='nonlinear',
                                diam=5.617,
                                well_depth=429.382))

species(name='CO2(114)',
        atoms='C:1 O:2',
        thermo=(NASA([100.00, 988.88],
                     [ 3.27861572E+00,  2.74146953E-03,  7.16092634E-06,
                      -1.08029773E-08,  4.14292628E-12, -4.84703146E+04,
                       5.97934936E+00]),
                NASA([988.88, 5000.00],
                     [ 4.54607860E+00,  2.91916230E-03, -1.15485423E-06,
                       2.27657696E-10, -1.70913288E-14, -4.89803523E+04,
                      -1.43265045E+00])),
        transport=gas_transport(geom='linear',
                                diam=3.763,
                                well_depth=244.001,
                                polar=2.65,
                                rot_relax=2.1))

species(name='CHO3(116)',
        atoms='C:1 H:1 O:3',
        thermo=(NASA([100.00, 968.17],
                     [ 3.28604899E+00,  9.07536783E-03,  1.53528962E-05,
                      -2.86400641E-08,  1.19726192E-11, -4.58350960E+04,
                       1.10208317E+01]),
                NASA([968.17, 5000.00],
                     [ 8.68678959E+00,  3.22562929E-03, -1.09087153E-06,
                       2.46326912E-10, -2.15845560E-14, -4.76524730E+04,
                      -1.88447910E+01])),
        transport=gas_transport(geom='nonlinear',
                                diam=5.425,
                                well_depth=432.363))

species(name='CHO4(125)',
        atoms='C:1 H:1 O:4',
        thermo=(NASA([100.00, 939.44],
                     [ 2.57827024E+00,  1.76125588E-02,  2.55002741E-05,
                      -5.62076233E-08,  2.53384807E-11, -4.60629329E+04,
                       1.57916882E+01]),
                NASA([939.44, 5000.00],
                     [ 1.54492118E+01, -2.49612004E-03,  2.21180062E-06,
                      -3.69642562E-10,  1.76378164E-14, -5.00121735E+04,
                      -5.36472983E+01])),
        transport=gas_transport(geom='nonlinear',
                                diam=6.079,
                                well_depth=500.186))

species(name='CHO2(133)',
        atoms='C:1 H:1 O:2',
        thermo=(NASA([100.00, 964.02],
                     [ 3.65819037E+00,  2.06097055E-03,  2.03280333E-05,
                      -2.91273537E-08,  1.14306207E-11, -2.21714501E+04,
                       8.26016656E+00]),
                NASA([964.02, 5000.00],
                     [ 7.09699816E+00,  1.61169975E-03, -4.75759146E-07,
                       1.29860591E-10, -1.30501754E-14, -2.34766008E+04,
                      -1.15346026E+01])),
        transport=gas_transport(geom='nonlinear',
                                diam=3.59,
                                well_depth=498.0,
                                rot_relax=2.0))

species(name='S(137)',
        atoms='C:2 H:3 O:2',
        thermo=(NASA([100.00, 1304.74],
                     [ 3.63761531E+00,  6.84186580E-03,  1.80209668E-05,
                      -1.86602196E-08,  5.03991196E-12, -2.61920813E+04,
                       1.08528326E+01]),
                NASA([1304.74, 5000.00],
                     [ 3.14216634E+00,  1.94495696E-02, -9.22170977E-06,
                       1.77335776E-09, -1.23426672E-13, -2.70066493E+04,
                       9.75787069E+00])),
        transport=gas_transport(geom='nonlinear',
                                diam=5.643,
                                well_depth=452.392))

species(name='S(144)',
        atoms='C:2 H:2 O:3',
        thermo=(NASA([100.00, 2170.08],
                     [ 3.56820102E+00,  1.80632038E-02, -6.28904910E-06,
                      -1.10012504E-10,  2.24557120E-13, -1.43539184E+04,
                       1.38178214E+01]),
                NASA([2170.08, 5000.00],
                     [ 1.24018255E+01,  8.68144078E-03, -4.57415864E-06,
                       8.28526369E-10, -5.23799512E-14, -1.98127395E+04,
                      -3.93871206E+01])),
        transport=gas_transport(geom='nonlinear',
                                diam=6.312,
                                well_depth=516.245))

species(name='C2H4(166)',
        atoms='C:2 H:4',
        thermo=(NASA([100.00, 940.43],
                     [ 3.97979217E+00, -7.57618761E-03,  5.52995005E-05,
                      -6.36251584E-08,  2.31780686E-11,  5.07745882E+03,
                       4.04605801E+00]),
                NASA([940.43, 5000.00],
                     [ 5.20284221E+00,  7.82468769E-03, -2.12698788E-06,
                       3.79727251E-10, -2.94701383E-14,  3.93634342E+03,
                      -6.62325847E+00])),
        transport=gas_transport(geom='nonlinear',
                                diam=3.971,
                                well_depth=280.801,
                                rot_relax=1.5))

species(name='C2H3(183)',
        atoms='C:2 H:3',
        thermo=(NASA([100.00, 931.96],
                     [ 3.90670569E+00, -4.06241335E-03,  3.86780140E-05,
                      -4.62976545E-08,  1.72900448E-11,  3.47971782E+04,
                       6.09788890E+00]),
                NASA([931.96, 5000.00],
                     [ 5.44796482E+00,  4.98356256E-03, -1.08820845E-06,
                       1.79837474E-10, -1.45096423E-14,  3.38297749E+04,
                      -4.87807845E+00])),
        transport=gas_transport(geom='nonlinear',
                                diam=4.1,
                                well_depth=209.001,
                                rot_relax=1.0))

species(name='C3H7(186)',
        atoms='C:3 H:7',
        thermo=(NASA([100.00, 995.41],
                     [ 3.09192721E+00,  1.32170772E-02,  2.75853631E-05,
                      -3.90856815E-08,  1.43316733E-11,  1.02284112E+04,
                       1.24057366E+01]),
                NASA([995.41, 5000.00],
                     [ 5.69425276E+00,  1.96034371E-02, -7.42055236E-06,
                       1.35884276E-09, -9.56225833E-14,  8.87587225E+03,
                      -4.32857776E+00])),
        transport=gas_transport(geom='nonlinear',
                                diam=4.982,
                                well_depth=266.801,
                                rot_relax=1.0))

species(name='C2H5O(189)',
        atoms='C:2 H:5 O:1',
        thermo=(NASA([100.00, 1017.76],
                     [ 2.87995149E+00,  2.19670820E-02, -1.09136168E-05,
                       9.49403399E-11,  1.31215042E-12, -5.36744532E+03,
                       1.24717843E+01]),
                NASA([1017.76, 5000.00],
                     [ 6.54526532E+00,  1.26018821E-02, -4.53932799E-06,
                       7.85390067E-10, -5.26748911E-14, -6.37456962E+03,
                      -6.55819482E+00])),
        transport=gas_transport(geom='nonlinear',
                                diam=4.53,
                                well_depth=362.6,
                                rot_relax=1.5))

species(name='C3H6(209)',
        atoms='C:3 H:6',
        thermo=(NASA([100.00, 988.01],
                     [ 3.30974090E+00,  8.27528081E-03,  3.37704142E-05,
                      -4.39292772E-08,  1.58765640E-11,  7.67476903E+02,
                       9.64360393E+00]),
                NASA([988.01, 5000.00],
                     [ 5.41216374E+00,  1.72863900E-02, -6.51347048E-06,
                       1.20319831E-09, -8.55900845E-14, -5.03227126E+02,
                      -4.80220550E+00])),
        transport=gas_transport(geom='nonlinear',
                                diam=4.982,
                                well_depth=266.801,
                                rot_relax=1.0))

species(name='C3H6(211)',
        atoms='C:3 H:6',
        thermo=(NASA([100.00, 1011.03],
                     [ 3.13018106E+00,  1.39359742E-02,  1.71980548E-05,
                      -2.69371319E-08,  9.94930622E-12,  3.49110477E+04,
                       1.33619814E+01]),
                NASA([1011.03, 5000.00],
                     [ 5.48786503E+00,  1.73100195E-02, -6.65289894E-06,
                       1.21644883E-09, -8.50335644E-14,  3.37851317E+04,
                      -1.24883288E+00])),
        transport=gas_transport(geom='nonlinear',
                                diam=5.092,
                                well_depth=329.271))

species(name='C3H7(212)',
        atoms='C:3 H:7',
        thermo=(NASA([100.00, 1100.31],
                     [ 3.21173347E+00,  1.31076698E-02,  1.99168403E-05,
                      -2.55871292E-08,  8.25822536E-12,  8.90792379E+03,
                       1.18466947E+01]),
                NASA([1100.31, 5000.00],
                     [ 3.65565832E+00,  2.30583058E-02, -9.41363741E-06,
                       1.73590685E-09, -1.20100823E-13,  8.11018832E+03,
                       6.48145582E+00])),
        transport=gas_transport(geom='nonlinear',
                                diam=4.982,
                                well_depth=266.801,
                                rot_relax=1.0))

species(name='C2H4O(223)',
        atoms='C:2 H:4 O:1',
        thermo=(NASA([100.00, 898.44],
                     [ 2.92550951E+00,  8.35976133E-03,  5.03473134E-05,
                      -8.45278423E-08,  3.72356271E-11, -1.99894862E+04,
                       9.07736400E+00]),
                NASA([898.44, 5000.00],
                     [ 1.51114268E+01, -5.38365426E-03,  5.65884272E-06,
                      -1.18188382E-09,  7.91174623E-14, -2.38141415E+04,
                      -5.75066228E+01])),
        transport=gas_transport(geom='nonlinear',
                                diam=3.97,
                                well_depth=436.0,
                                rot_relax=2.0))
